  0
SECTION
  2
ENTITIES
999
DXF created from EnergyPlus
999
Program Version,EnergyPlus, Version 8.7.0-78a111df4a, YMD=2017.07.24 13:16
999
Polygon Action,REGULARPOLYLINE
999
Color Scheme,Default
999
Text - True North
  0
TEXT
  8
1
  6
Continuous
 62
  3
 10
      -20.19239
 20
       -2.65685
 30
        0.10000
 40
 .25
  1
True North
 41
 0.0
  7
MONOTXT
210
0.0
220
0.0
230
1.0
999
Text - Building Title
  0
TEXT
  8
1
  6
Continuous
 62
  3
 10
      -23.19239
 20
       -6.65685
 30
        0.10000
 40
 .4
  1
Building - MM_split_NVtemperature
 41
 0.0
  7
MONOTXT
210
0.0
220
0.0
230
1.0
999
North Arrow Stem
  0
3DFACE
  8
1
 62
  3
 10
      -19.19239
 20
       -2.65685
 30
        0.10000
 11
      -19.19239
 21
       -2.65685
 31
        0.00000
 12
      -19.19239
 22
       -5.65685
 32
        0.00000
 13
      -19.19239
 23
       -5.65685
 33
        0.10000
999
North Arrow Head 1
  0
3DFACE
  8
1
 62
  3
 10
      -19.19239
 20
       -2.65685
 30
        0.10000
 11
      -19.19239
 21
       -2.65685
 31
        0.00000
 12
      -19.69239
 22
       -3.52288
 32
        0.00000
 13
      -19.69239
 23
       -3.52288
 33
        0.10000
999
North Arrow Head 2
  0
3DFACE
  8
1
 62
  3
 10
      -19.19239
 20
       -2.65685
 30
        0.10000
 11
      -19.19239
 21
       -2.65685
 31
        0.00000
 12
      -18.69239
 22
       -3.52288
 32
        0.00000
 13
      -18.69239
 23
       -3.52288
 33
        0.10000
999
North Arrow Side 1
  0
3DFACE
  8
1
 62
  3
 10
      -19.69239
 20
       -1.15685
 30
        0.10000
 11
      -19.69239
 21
       -1.15685
 31
        0.00000
 12
      -19.69239
 22
       -2.15685
 32
        0.00000
 13
      -19.69239
 23
       -2.15685
 33
        0.10000
999
North Arrow Side 2
  0
3DFACE
  8
1
 62
  3
 10
      -19.69239
 20
       -1.15685
 30
        0.10000
 11
      -19.69239
 21
       -1.15685
 31
        0.00000
 12
      -18.69239
 22
       -2.15685
 32
        0.00000
 13
      -18.69239
 23
       -2.15685
 33
        0.10000
999
North Arrow Side 3
  0
3DFACE
  8
1
 62
  3
 10
      -18.69239
 20
       -1.15685
 30
        0.10000
 11
      -18.69239
 21
       -1.15685
 31
        0.00000
 12
      -18.69239
 22
       -2.15685
 32
        0.00000
 13
      -18.69239
 23
       -2.15685
 33
        0.10000
999
Zone Names
999
Zone=1:ZN1
999
ZN1:ZN1_PAR4
  0
3DFACE
  8
ZN1
 62
 43
 10
       -5.65685
 20
       -5.65685
 30
       16.20000
 11
       -5.65685
 21
       -5.65685
 31
       13.50000
 12
        0.00000
 22
        0.00000
 32
       13.50000
 13
        0.00000
 23
        0.00000
 33
       16.20000
999
ZN1:ZN1_PAR4_JAN
  0
3DFACE
  8
ZN1
 62
143
 10
       -5.62150
 20
       -5.62150
 30
       16.15000
 11
       -5.62150
 21
       -5.62150
 31
       15.32975
 12
       -0.03536
 22
       -0.03536
 32
       15.32975
 13
       -0.03536
 23
       -0.03536
 33
       16.15000
999
ZN1:ZN1_PAR3
  0
3DFACE
  8
ZN1
 62
 43
 10
       -9.19239
 20
       -2.12132
 30
       16.20000
 11
       -9.19239
 21
       -2.12132
 31
       13.50000
 12
       -5.65685
 22
       -5.65685
 32
       13.50000
 13
       -5.65685
 23
       -5.65685
 33
       16.20000
999
ZN1:ZN1_PAR1
  0
3DFACE
  8
ZN1
 62
 43
 10
        0.00000
 20
        0.00000
 30
       16.20000
 11
        0.00000
 21
        0.00000
 31
       13.50000
 12
       -3.53553
 22
        3.53553
 32
       13.50000
 13
       -3.53553
 23
        3.53553
 33
       16.20000
999
ZN1:ZN1_PAR1_JAN
  0
3DFACE
  8
ZN1
 62
143
 10
       -0.03536
 20
        0.03536
 30
       16.15000
 11
       -0.03536
 21
        0.03536
 31
       15.32347
 12
       -3.50018
 22
        3.50018
 32
       15.32347
 13
       -3.50018
 23
        3.50018
 33
       16.15000
999
ZN1:ZN1_PAR2
  0
3DFACE
  8
ZN1
 62
 43
 10
       -3.53553
 20
        3.53553
 30
       16.20000
 11
       -3.53553
 21
        3.53553
 31
       13.50000
 12
       -9.19239
 22
       -2.12132
 32
       13.50000
 13
       -9.19239
 23
       -2.12132
 33
       16.20000
999
ZN1:PISO
  0
3DFACE
  8
ZN1
 62
  8
 10
       -9.19239
 20
       -2.12132
 30
       13.50000
 11
       -3.53553
 21
        3.53553
 31
       13.50000
 12
        0.00000
 22
        0.00000
 32
       13.50000
 13
       -5.65685
 23
       -5.65685
 33
       13.50000
999
ZN1:COBE
  0
3DFACE
  8
ZN1
 62
 15
 10
       -5.65685
 20
       -5.65685
 30
       16.20000
 11
        0.00000
 21
        0.00000
 31
       16.20000
 12
       -3.53553
 22
        3.53553
 32
       16.20000
 13
       -9.19239
 23
       -2.12132
 33
       16.20000
  0
ENDSEC
  0
EOF
